
---------- Begin Simulation Statistics ----------
sim_seconds                                  0.000607                       # Number of seconds simulated
sim_ticks                                   607029500                       # Number of ticks simulated
final_tick                                  607029500                       # Number of ticks from beginning of simulation (restored from checkpoints and never reset)
sim_freq                                 1000000000000                       # Frequency of simulated ticks
host_inst_rate                                 196271                       # Simulator instruction rate (inst/s)
host_op_rate                                   372498                       # Simulator op (including micro ops) rate (op/s)
host_tick_rate                               60039350                       # Simulator tick rate (ticks/s)
host_mem_usage                                1013480                       # Number of bytes of host memory used
host_seconds                                    10.11                       # Real time elapsed on the host
sim_insts                                     1984396                       # Number of instructions simulated
sim_ops                                       3766145                       # Number of ops (including micro ops) simulated
system.voltage_domain.voltage                       1                       # Voltage in Volts
system.clk_domain.clock                          1000                       # Clock period in ticks
system.mem_ctrls.bytes_read::ruby.dir_cntrl0       179456                       # Number of bytes read from this memory
system.mem_ctrls.bytes_read::total             179456                       # Number of bytes read from this memory
system.mem_ctrls.num_reads::ruby.dir_cntrl0         2804                       # Number of read requests responded to by this memory
system.mem_ctrls.num_reads::total                2804                       # Number of read requests responded to by this memory
system.mem_ctrls.bw_read::ruby.dir_cntrl0    295629784                       # Total read bandwidth from this memory (bytes/s)
system.mem_ctrls.bw_read::total             295629784                       # Total read bandwidth from this memory (bytes/s)
system.mem_ctrls.bw_total::ruby.dir_cntrl0    295629784                       # Total bandwidth to/from this memory (bytes/s)
system.mem_ctrls.bw_total::total            295629784                       # Total bandwidth to/from this memory (bytes/s)
system.mem_ctrls.readReqs                        2804                       # Number of read requests accepted
system.mem_ctrls.writeReqs                          0                       # Number of write requests accepted
system.mem_ctrls.readBursts                      2804                       # Number of DRAM read bursts, including those serviced by the write queue
system.mem_ctrls.writeBursts                        0                       # Number of DRAM write bursts, including those merged in the write queue
system.mem_ctrls.bytesReadDRAM                 179456                       # Total number of bytes read from DRAM
system.mem_ctrls.bytesReadWrQ                       0                       # Total number of bytes read from write queue
system.mem_ctrls.bytesWritten                       0                       # Total number of bytes written to DRAM
system.mem_ctrls.bytesReadSys                  179456                       # Total read bytes from the system interface side
system.mem_ctrls.bytesWrittenSys                    0                       # Total written bytes from the system interface side
system.mem_ctrls.servicedByWrQ                      0                       # Number of DRAM read bursts serviced by the write queue
system.mem_ctrls.mergedWrBursts                     0                       # Number of DRAM write bursts merged with an existing one
system.mem_ctrls.neitherReadNorWriteReqs            0                       # Number of requests that are neither read nor write
system.mem_ctrls.perBankRdBursts::0               542                       # Per bank write bursts
system.mem_ctrls.perBankRdBursts::1               218                       # Per bank write bursts
system.mem_ctrls.perBankRdBursts::2               195                       # Per bank write bursts
system.mem_ctrls.perBankRdBursts::3               169                       # Per bank write bursts
system.mem_ctrls.perBankRdBursts::4               162                       # Per bank write bursts
system.mem_ctrls.perBankRdBursts::5               170                       # Per bank write bursts
system.mem_ctrls.perBankRdBursts::6               165                       # Per bank write bursts
system.mem_ctrls.perBankRdBursts::7               149                       # Per bank write bursts
system.mem_ctrls.perBankRdBursts::8               133                       # Per bank write bursts
system.mem_ctrls.perBankRdBursts::9               144                       # Per bank write bursts
system.mem_ctrls.perBankRdBursts::10              166                       # Per bank write bursts
system.mem_ctrls.perBankRdBursts::11              141                       # Per bank write bursts
system.mem_ctrls.perBankRdBursts::12              169                       # Per bank write bursts
system.mem_ctrls.perBankRdBursts::13              103                       # Per bank write bursts
system.mem_ctrls.perBankRdBursts::14              101                       # Per bank write bursts
system.mem_ctrls.perBankRdBursts::15               77                       # Per bank write bursts
system.mem_ctrls.perBankWrBursts::0                 0                       # Per bank write bursts
system.mem_ctrls.perBankWrBursts::1                 0                       # Per bank write bursts
system.mem_ctrls.perBankWrBursts::2                 0                       # Per bank write bursts
system.mem_ctrls.perBankWrBursts::3                 0                       # Per bank write bursts
system.mem_ctrls.perBankWrBursts::4                 0                       # Per bank write bursts
system.mem_ctrls.perBankWrBursts::5                 0                       # Per bank write bursts
system.mem_ctrls.perBankWrBursts::6                 0                       # Per bank write bursts
system.mem_ctrls.perBankWrBursts::7                 0                       # Per bank write bursts
system.mem_ctrls.perBankWrBursts::8                 0                       # Per bank write bursts
system.mem_ctrls.perBankWrBursts::9                 0                       # Per bank write bursts
system.mem_ctrls.perBankWrBursts::10                0                       # Per bank write bursts
system.mem_ctrls.perBankWrBursts::11                0                       # Per bank write bursts
system.mem_ctrls.perBankWrBursts::12                0                       # Per bank write bursts
system.mem_ctrls.perBankWrBursts::13                0                       # Per bank write bursts
system.mem_ctrls.perBankWrBursts::14                0                       # Per bank write bursts
system.mem_ctrls.perBankWrBursts::15                0                       # Per bank write bursts
system.mem_ctrls.numRdRetry                         0                       # Number of times read queue was full causing retry
system.mem_ctrls.numWrRetry                         0                       # Number of times write queue was full causing retry
system.mem_ctrls.totGap                     606968000                       # Total gap between requests
system.mem_ctrls.readPktSize::0                     0                       # Read request sizes (log2)
system.mem_ctrls.readPktSize::1                     0                       # Read request sizes (log2)
system.mem_ctrls.readPktSize::2                     0                       # Read request sizes (log2)
system.mem_ctrls.readPktSize::3                     0                       # Read request sizes (log2)
system.mem_ctrls.readPktSize::4                     0                       # Read request sizes (log2)
system.mem_ctrls.readPktSize::5                     0                       # Read request sizes (log2)
system.mem_ctrls.readPktSize::6                  2804                       # Read request sizes (log2)
system.mem_ctrls.writePktSize::0                    0                       # Write request sizes (log2)
system.mem_ctrls.writePktSize::1                    0                       # Write request sizes (log2)
system.mem_ctrls.writePktSize::2                    0                       # Write request sizes (log2)
system.mem_ctrls.writePktSize::3                    0                       # Write request sizes (log2)
system.mem_ctrls.writePktSize::4                    0                       # Write request sizes (log2)
system.mem_ctrls.writePktSize::5                    0                       # Write request sizes (log2)
system.mem_ctrls.writePktSize::6                    0                       # Write request sizes (log2)
system.mem_ctrls.rdQLenPdf::0                    2651                       # What read queue length does an incoming req see
system.mem_ctrls.rdQLenPdf::1                      85                       # What read queue length does an incoming req see
system.mem_ctrls.rdQLenPdf::2                       7                       # What read queue length does an incoming req see
system.mem_ctrls.rdQLenPdf::3                       2                       # What read queue length does an incoming req see
system.mem_ctrls.rdQLenPdf::4                       1                       # What read queue length does an incoming req see
system.mem_ctrls.rdQLenPdf::5                       1                       # What read queue length does an incoming req see
system.mem_ctrls.rdQLenPdf::6                       2                       # What read queue length does an incoming req see
system.mem_ctrls.rdQLenPdf::7                       1                       # What read queue length does an incoming req see
system.mem_ctrls.rdQLenPdf::8                       1                       # What read queue length does an incoming req see
system.mem_ctrls.rdQLenPdf::9                       2                       # What read queue length does an incoming req see
system.mem_ctrls.rdQLenPdf::10                      1                       # What read queue length does an incoming req see
system.mem_ctrls.rdQLenPdf::11                      1                       # What read queue length does an incoming req see
system.mem_ctrls.rdQLenPdf::12                      2                       # What read queue length does an incoming req see
system.mem_ctrls.rdQLenPdf::13                      1                       # What read queue length does an incoming req see
system.mem_ctrls.rdQLenPdf::14                      2                       # What read queue length does an incoming req see
system.mem_ctrls.rdQLenPdf::15                      1                       # What read queue length does an incoming req see
system.mem_ctrls.rdQLenPdf::16                      1                       # What read queue length does an incoming req see
system.mem_ctrls.rdQLenPdf::17                      2                       # What read queue length does an incoming req see
system.mem_ctrls.rdQLenPdf::18                      1                       # What read queue length does an incoming req see
system.mem_ctrls.rdQLenPdf::19                      2                       # What read queue length does an incoming req see
system.mem_ctrls.rdQLenPdf::20                      1                       # What read queue length does an incoming req see
system.mem_ctrls.rdQLenPdf::21                      1                       # What read queue length does an incoming req see
system.mem_ctrls.rdQLenPdf::22                      2                       # What read queue length does an incoming req see
system.mem_ctrls.rdQLenPdf::23                      1                       # What read queue length does an incoming req see
system.mem_ctrls.rdQLenPdf::24                      1                       # What read queue length does an incoming req see
system.mem_ctrls.rdQLenPdf::25                      1                       # What read queue length does an incoming req see
system.mem_ctrls.rdQLenPdf::26                      2                       # What read queue length does an incoming req see
system.mem_ctrls.rdQLenPdf::27                      2                       # What read queue length does an incoming req see
system.mem_ctrls.rdQLenPdf::28                      2                       # What read queue length does an incoming req see
system.mem_ctrls.rdQLenPdf::29                      3                       # What read queue length does an incoming req see
system.mem_ctrls.rdQLenPdf::30                     21                       # What read queue length does an incoming req see
system.mem_ctrls.rdQLenPdf::31                      0                       # What read queue length does an incoming req see
system.mem_ctrls.wrQLenPdf::0                       0                       # What write queue length does an incoming req see
system.mem_ctrls.wrQLenPdf::1                       0                       # What write queue length does an incoming req see
system.mem_ctrls.wrQLenPdf::2                       0                       # What write queue length does an incoming req see
system.mem_ctrls.wrQLenPdf::3                       0                       # What write queue length does an incoming req see
system.mem_ctrls.wrQLenPdf::4                       0                       # What write queue length does an incoming req see
system.mem_ctrls.wrQLenPdf::5                       0                       # What write queue length does an incoming req see
system.mem_ctrls.wrQLenPdf::6                       0                       # What write queue length does an incoming req see
system.mem_ctrls.wrQLenPdf::7                       0                       # What write queue length does an incoming req see
system.mem_ctrls.wrQLenPdf::8                       0                       # What write queue length does an incoming req see
system.mem_ctrls.wrQLenPdf::9                       0                       # What write queue length does an incoming req see
system.mem_ctrls.wrQLenPdf::10                      0                       # What write queue length does an incoming req see
system.mem_ctrls.wrQLenPdf::11                      0                       # What write queue length does an incoming req see
system.mem_ctrls.wrQLenPdf::12                      0                       # What write queue length does an incoming req see
system.mem_ctrls.wrQLenPdf::13                      0                       # What write queue length does an incoming req see
system.mem_ctrls.wrQLenPdf::14                      0                       # What write queue length does an incoming req see
system.mem_ctrls.wrQLenPdf::15                      0                       # What write queue length does an incoming req see
system.mem_ctrls.wrQLenPdf::16                      0                       # What write queue length does an incoming req see
system.mem_ctrls.wrQLenPdf::17                      0                       # What write queue length does an incoming req see
system.mem_ctrls.wrQLenPdf::18                      0                       # What write queue length does an incoming req see
system.mem_ctrls.wrQLenPdf::19                      0                       # What write queue length does an incoming req see
system.mem_ctrls.wrQLenPdf::20                      0                       # What write queue length does an incoming req see
system.mem_ctrls.wrQLenPdf::21                      0                       # What write queue length does an incoming req see
system.mem_ctrls.wrQLenPdf::22                      0                       # What write queue length does an incoming req see
system.mem_ctrls.wrQLenPdf::23                      0                       # What write queue length does an incoming req see
system.mem_ctrls.wrQLenPdf::24                      0                       # What write queue length does an incoming req see
system.mem_ctrls.wrQLenPdf::25                      0                       # What write queue length does an incoming req see
system.mem_ctrls.wrQLenPdf::26                      0                       # What write queue length does an incoming req see
system.mem_ctrls.wrQLenPdf::27                      0                       # What write queue length does an incoming req see
system.mem_ctrls.wrQLenPdf::28                      0                       # What write queue length does an incoming req see
system.mem_ctrls.wrQLenPdf::29                      0                       # What write queue length does an incoming req see
system.mem_ctrls.wrQLenPdf::30                      0                       # What write queue length does an incoming req see
system.mem_ctrls.wrQLenPdf::31                      0                       # What write queue length does an incoming req see
system.mem_ctrls.wrQLenPdf::32                      0                       # What write queue length does an incoming req see
system.mem_ctrls.wrQLenPdf::33                      0                       # What write queue length does an incoming req see
system.mem_ctrls.wrQLenPdf::34                      0                       # What write queue length does an incoming req see
system.mem_ctrls.wrQLenPdf::35                      0                       # What write queue length does an incoming req see
system.mem_ctrls.wrQLenPdf::36                      0                       # What write queue length does an incoming req see
system.mem_ctrls.wrQLenPdf::37                      0                       # What write queue length does an incoming req see
system.mem_ctrls.wrQLenPdf::38                      0                       # What write queue length does an incoming req see
system.mem_ctrls.wrQLenPdf::39                      0                       # What write queue length does an incoming req see
system.mem_ctrls.wrQLenPdf::40                      0                       # What write queue length does an incoming req see
system.mem_ctrls.wrQLenPdf::41                      0                       # What write queue length does an incoming req see
system.mem_ctrls.wrQLenPdf::42                      0                       # What write queue length does an incoming req see
system.mem_ctrls.wrQLenPdf::43                      0                       # What write queue length does an incoming req see
system.mem_ctrls.wrQLenPdf::44                      0                       # What write queue length does an incoming req see
system.mem_ctrls.wrQLenPdf::45                      0                       # What write queue length does an incoming req see
system.mem_ctrls.wrQLenPdf::46                      0                       # What write queue length does an incoming req see
system.mem_ctrls.wrQLenPdf::47                      0                       # What write queue length does an incoming req see
system.mem_ctrls.wrQLenPdf::48                      0                       # What write queue length does an incoming req see
system.mem_ctrls.wrQLenPdf::49                      0                       # What write queue length does an incoming req see
system.mem_ctrls.wrQLenPdf::50                      0                       # What write queue length does an incoming req see
system.mem_ctrls.wrQLenPdf::51                      0                       # What write queue length does an incoming req see
system.mem_ctrls.wrQLenPdf::52                      0                       # What write queue length does an incoming req see
system.mem_ctrls.wrQLenPdf::53                      0                       # What write queue length does an incoming req see
system.mem_ctrls.wrQLenPdf::54                      0                       # What write queue length does an incoming req see
system.mem_ctrls.wrQLenPdf::55                      0                       # What write queue length does an incoming req see
system.mem_ctrls.wrQLenPdf::56                      0                       # What write queue length does an incoming req see
system.mem_ctrls.wrQLenPdf::57                      0                       # What write queue length does an incoming req see
system.mem_ctrls.wrQLenPdf::58                      0                       # What write queue length does an incoming req see
system.mem_ctrls.wrQLenPdf::59                      0                       # What write queue length does an incoming req see
system.mem_ctrls.wrQLenPdf::60                      0                       # What write queue length does an incoming req see
system.mem_ctrls.wrQLenPdf::61                      0                       # What write queue length does an incoming req see
system.mem_ctrls.wrQLenPdf::62                      0                       # What write queue length does an incoming req see
system.mem_ctrls.wrQLenPdf::63                      0                       # What write queue length does an incoming req see
system.mem_ctrls.bytesPerActivate::samples          568                       # Bytes accessed per row activation
system.mem_ctrls.bytesPerActivate::mean    311.774648                       # Bytes accessed per row activation
system.mem_ctrls.bytesPerActivate::gmean   164.183741                       # Bytes accessed per row activation
system.mem_ctrls.bytesPerActivate::stdev   364.183499                       # Bytes accessed per row activation
system.mem_ctrls.bytesPerActivate::0-127          278     48.94%     48.94% # Bytes accessed per row activation
system.mem_ctrls.bytesPerActivate::128-255           95     16.73%     65.67% # Bytes accessed per row activation
system.mem_ctrls.bytesPerActivate::256-383           45      7.92%     73.59% # Bytes accessed per row activation
system.mem_ctrls.bytesPerActivate::384-511           18      3.17%     76.76% # Bytes accessed per row activation
system.mem_ctrls.bytesPerActivate::512-639           11      1.94%     78.70% # Bytes accessed per row activation
system.mem_ctrls.bytesPerActivate::640-767            9      1.58%     80.28% # Bytes accessed per row activation
system.mem_ctrls.bytesPerActivate::768-895            9      1.58%     81.87% # Bytes accessed per row activation
system.mem_ctrls.bytesPerActivate::896-1023            6      1.06%     82.92% # Bytes accessed per row activation
system.mem_ctrls.bytesPerActivate::1024-1151           97     17.08%    100.00% # Bytes accessed per row activation
system.mem_ctrls.bytesPerActivate::total          568                       # Bytes accessed per row activation
system.mem_ctrls.totQLat                     88060749                       # Total ticks spent queuing
system.mem_ctrls.totMemAccLat               140635749                       # Total ticks spent from burst creation until serviced by the DRAM
system.mem_ctrls.totBusLat                   14020000                       # Total ticks spent in databus transfers
system.mem_ctrls.avgQLat                     31405.40                       # Average queueing delay per DRAM burst
system.mem_ctrls.avgBusLat                    5000.00                       # Average bus latency per DRAM burst
system.mem_ctrls.avgMemAccLat                50155.40                       # Average memory access latency per DRAM burst
system.mem_ctrls.avgRdBW                       295.63                       # Average DRAM read bandwidth in MiByte/s
system.mem_ctrls.avgWrBW                         0.00                       # Average achieved write bandwidth in MiByte/s
system.mem_ctrls.avgRdBWSys                    295.63                       # Average system read bandwidth in MiByte/s
system.mem_ctrls.avgWrBWSys                      0.00                       # Average system write bandwidth in MiByte/s
system.mem_ctrls.peakBW                      12800.00                       # Theoretical peak bandwidth in MiByte/s
system.mem_ctrls.busUtil                         2.31                       # Data bus utilization in percentage
system.mem_ctrls.busUtilRead                     2.31                       # Data bus utilization in percentage for reads
system.mem_ctrls.busUtilWrite                    0.00                       # Data bus utilization in percentage for writes
system.mem_ctrls.avgRdQLen                       1.17                       # Average read queue length when enqueuing
system.mem_ctrls.avgWrQLen                       0.00                       # Average write queue length when enqueuing
system.mem_ctrls.readRowHits                     2226                       # Number of row buffer hits during reads
system.mem_ctrls.writeRowHits                       0                       # Number of row buffer hits during writes
system.mem_ctrls.readRowHitRate                 79.39                       # Row buffer hit rate for reads
system.mem_ctrls.writeRowHitRate                  nan                       # Row buffer hit rate for writes
system.mem_ctrls.avgGap                     216465.05                       # Average gap between requests
system.mem_ctrls.pageHitRate                    79.39                       # Row buffer hit rate, read and write combined
system.mem_ctrls_0.actEnergy                  3243240                       # Energy for activate commands per rank (pJ)
system.mem_ctrls_0.preEnergy                  1769625                       # Energy for precharge commands per rank (pJ)
system.mem_ctrls_0.readEnergy                13634400                       # Energy for read commands per rank (pJ)
system.mem_ctrls_0.writeEnergy                      0                       # Energy for write commands per rank (pJ)
system.mem_ctrls_0.refreshEnergy             39159120                       # Energy for refresh commands per rank (pJ)
system.mem_ctrls_0.actBackEnergy            151921530                       # Energy for active background per rank (pJ)
system.mem_ctrls_0.preBackEnergy            226616250                       # Energy for precharge background per rank (pJ)
system.mem_ctrls_0.totalEnergy              436344165                       # Total energy per rank (pJ)
system.mem_ctrls_0.averagePower            727.481253                       # Core power per rank (mW)
system.mem_ctrls_0.memoryStateTime::IDLE    373480750                       # Time in different power states
system.mem_ctrls_0.memoryStateTime::REF      20020000                       # Time in different power states
system.mem_ctrls_0.memoryStateTime::PRE_PDN            0                       # Time in different power states
system.mem_ctrls_0.memoryStateTime::ACT     206314250                       # Time in different power states
system.mem_ctrls_0.memoryStateTime::ACT_PDN            0                       # Time in different power states
system.mem_ctrls_1.actEnergy                  1013040                       # Energy for activate commands per rank (pJ)
system.mem_ctrls_1.preEnergy                   552750                       # Energy for precharge commands per rank (pJ)
system.mem_ctrls_1.readEnergy                 7761000                       # Energy for read commands per rank (pJ)
system.mem_ctrls_1.writeEnergy                      0                       # Energy for write commands per rank (pJ)
system.mem_ctrls_1.refreshEnergy             39159120                       # Energy for refresh commands per rank (pJ)
system.mem_ctrls_1.actBackEnergy            122670270                       # Energy for active background per rank (pJ)
system.mem_ctrls_1.preBackEnergy            252267000                       # Energy for precharge background per rank (pJ)
system.mem_ctrls_1.totalEnergy              423423180                       # Total energy per rank (pJ)
system.mem_ctrls_1.averagePower            705.955326                       # Core power per rank (mW)
system.mem_ctrls_1.memoryStateTime::IDLE    421366500                       # Time in different power states
system.mem_ctrls_1.memoryStateTime::REF      20020000                       # Time in different power states
system.mem_ctrls_1.memoryStateTime::PRE_PDN            0                       # Time in different power states
system.mem_ctrls_1.memoryStateTime::ACT     161063500                       # Time in different power states
system.mem_ctrls_1.memoryStateTime::ACT_PDN            0                       # Time in different power states
system.cpu_voltage_domain.voltage                   1                       # Voltage in Volts
system.cpu_clk_domain.clock                       500                       # Clock period in ticks
system.cpu00.apic_clk_domain.clock               8000                       # Clock period in ticks
system.cpu00.workload.num_syscalls                199                       # Number of system calls
system.cpu00.numCycles                        1214059                       # number of cpu cycles simulated
system.cpu00.numWorkItemsStarted                    0                       # number of work items this cpu started
system.cpu00.numWorkItemsCompleted                  0                       # number of work items this cpu completed
system.cpu00.committedInsts                    126957                       # Number of instructions committed
system.cpu00.committedOps                      321809                       # Number of ops (including micro ops) committed
system.cpu00.num_int_alu_accesses              219800                       # Number of integer alu accesses
system.cpu00.num_fp_alu_accesses                88863                       # Number of float alu accesses
system.cpu00.num_func_calls                       794                       # number of times a function call or return occured
system.cpu00.num_conditional_control_insts        30992                       # number of instructions that are conditional controls
system.cpu00.num_int_insts                     219800                       # number of integer instructions
system.cpu00.num_fp_insts                       88863                       # number of float instructions
system.cpu00.num_int_register_reads            428907                       # number of times the integer registers were read
system.cpu00.num_int_register_writes           186857                       # number of times the integer registers were written
system.cpu00.num_fp_register_reads             183141                       # number of times the floating registers were read
system.cpu00.num_fp_register_writes             80547                       # number of times the floating registers were written
system.cpu00.num_cc_register_reads             163256                       # number of times the CC registers were read
system.cpu00.num_cc_register_writes            118793                       # number of times the CC registers were written
system.cpu00.num_mem_refs                       46822                       # number of memory refs
system.cpu00.num_load_insts                     21093                       # Number of load instructions
system.cpu00.num_store_insts                    25729                       # Number of store instructions
system.cpu00.num_idle_cycles                 0.002000                       # Number of idle cycles
system.cpu00.num_busy_cycles             1214058.998000                       # Number of busy cycles
system.cpu00.not_idle_fraction               1.000000                       # Percentage of non-idle cycles
system.cpu00.idle_fraction                   0.000000                       # Percentage of idle cycles
system.cpu00.Branches                           32159                       # Number of branches fetched
system.cpu00.op_class::No_OpClass               21908      6.81%      6.81% # Class of executed instruction
system.cpu00.op_class::IntAlu                  189756     58.97%     65.77% # Class of executed instruction
system.cpu00.op_class::IntMult                   8217      2.55%     68.33% # Class of executed instruction
system.cpu00.op_class::IntDiv                      42      0.01%     68.34% # Class of executed instruction
system.cpu00.op_class::FloatAdd                 55064     17.11%     85.45% # Class of executed instruction
system.cpu00.op_class::FloatCmp                     0      0.00%     85.45% # Class of executed instruction
system.cpu00.op_class::FloatCvt                     0      0.00%     85.45% # Class of executed instruction
system.cpu00.op_class::FloatMult                    0      0.00%     85.45% # Class of executed instruction
system.cpu00.op_class::FloatDiv                     0      0.00%     85.45% # Class of executed instruction
system.cpu00.op_class::FloatSqrt                    0      0.00%     85.45% # Class of executed instruction
system.cpu00.op_class::SimdAdd                      0      0.00%     85.45% # Class of executed instruction
system.cpu00.op_class::SimdAddAcc                   0      0.00%     85.45% # Class of executed instruction
system.cpu00.op_class::SimdAlu                      0      0.00%     85.45% # Class of executed instruction
system.cpu00.op_class::SimdCmp                      0      0.00%     85.45% # Class of executed instruction
system.cpu00.op_class::SimdCvt                      0      0.00%     85.45% # Class of executed instruction
system.cpu00.op_class::SimdMisc                     0      0.00%     85.45% # Class of executed instruction
system.cpu00.op_class::SimdMult                     0      0.00%     85.45% # Class of executed instruction
system.cpu00.op_class::SimdMultAcc                  0      0.00%     85.45% # Class of executed instruction
system.cpu00.op_class::SimdShift                    0      0.00%     85.45% # Class of executed instruction
system.cpu00.op_class::SimdShiftAcc                 0      0.00%     85.45% # Class of executed instruction
system.cpu00.op_class::SimdSqrt                     0      0.00%     85.45% # Class of executed instruction
system.cpu00.op_class::SimdFloatAdd                 0      0.00%     85.45% # Class of executed instruction
system.cpu00.op_class::SimdFloatAlu                 0      0.00%     85.45% # Class of executed instruction
system.cpu00.op_class::SimdFloatCmp                 0      0.00%     85.45% # Class of executed instruction
system.cpu00.op_class::SimdFloatCvt                 0      0.00%     85.45% # Class of executed instruction
system.cpu00.op_class::SimdFloatDiv                 0      0.00%     85.45% # Class of executed instruction
system.cpu00.op_class::SimdFloatMisc                0      0.00%     85.45% # Class of executed instruction
system.cpu00.op_class::SimdFloatMult                0      0.00%     85.45% # Class of executed instruction
system.cpu00.op_class::SimdFloatMultAcc             0      0.00%     85.45% # Class of executed instruction
system.cpu00.op_class::SimdFloatSqrt                0      0.00%     85.45% # Class of executed instruction
system.cpu00.op_class::MemRead                  21093      6.55%     92.00% # Class of executed instruction
system.cpu00.op_class::MemWrite                 25729      8.00%    100.00% # Class of executed instruction
system.cpu00.op_class::IprAccess                    0      0.00%    100.00% # Class of executed instruction
system.cpu00.op_class::InstPrefetch                 0      0.00%    100.00% # Class of executed instruction
system.cpu00.op_class::total                   321809                       # Class of executed instruction
system.cpu01.apic_clk_domain.clock               8000                       # Clock period in ticks
system.cpu01.numCycles                        1203958                       # number of cpu cycles simulated
system.cpu01.numWorkItemsStarted                    0                       # number of work items this cpu started
system.cpu01.numWorkItemsCompleted                  0                       # number of work items this cpu completed
system.cpu01.committedInsts                     59909                       # Number of instructions committed
system.cpu01.committedOps                      111091                       # Number of ops (including micro ops) committed
system.cpu01.num_int_alu_accesses              110725                       # Number of integer alu accesses
system.cpu01.num_fp_alu_accesses                    0                       # Number of float alu accesses
system.cpu01.num_func_calls                        15                       # number of times a function call or return occured
system.cpu01.num_conditional_control_insts         8805                       # number of instructions that are conditional controls
system.cpu01.num_int_insts                     110725                       # number of integer instructions
system.cpu01.num_fp_insts                           0                       # number of float instructions
system.cpu01.num_int_register_reads            203851                       # number of times the integer registers were read
system.cpu01.num_int_register_writes           109933                       # number of times the integer registers were written
system.cpu01.num_fp_register_reads                  0                       # number of times the floating registers were read
system.cpu01.num_fp_register_writes                 0                       # number of times the floating registers were written
system.cpu01.num_cc_register_reads              44276                       # number of times the CC registers were read
system.cpu01.num_cc_register_writes             76008                       # number of times the CC registers were written
system.cpu01.num_mem_refs                       16874                       # number of memory refs
system.cpu01.num_load_insts                     16690                       # Number of load instructions
system.cpu01.num_store_insts                      184                       # Number of store instructions
system.cpu01.num_idle_cycles             816680.194645                       # Number of idle cycles
system.cpu01.num_busy_cycles             387277.805355                       # Number of busy cycles
system.cpu01.not_idle_fraction               0.321671                       # Percentage of non-idle cycles
system.cpu01.idle_fraction                   0.678329                       # Percentage of idle cycles
system.cpu01.Branches                            8829                       # Number of branches fetched
system.cpu01.op_class::No_OpClass                 135      0.12%      0.12% # Class of executed instruction
system.cpu01.op_class::IntAlu                   85873     77.30%     77.42% # Class of executed instruction
system.cpu01.op_class::IntMult                   8195      7.38%     84.80% # Class of executed instruction
system.cpu01.op_class::IntDiv                      14      0.01%     84.81% # Class of executed instruction
system.cpu01.op_class::FloatAdd                     0      0.00%     84.81% # Class of executed instruction
system.cpu01.op_class::FloatCmp                     0      0.00%     84.81% # Class of executed instruction
system.cpu01.op_class::FloatCvt                     0      0.00%     84.81% # Class of executed instruction
system.cpu01.op_class::FloatMult                    0      0.00%     84.81% # Class of executed instruction
system.cpu01.op_class::FloatDiv                     0      0.00%     84.81% # Class of executed instruction
system.cpu01.op_class::FloatSqrt                    0      0.00%     84.81% # Class of executed instruction
system.cpu01.op_class::SimdAdd                      0      0.00%     84.81% # Class of executed instruction
system.cpu01.op_class::SimdAddAcc                   0      0.00%     84.81% # Class of executed instruction
system.cpu01.op_class::SimdAlu                      0      0.00%     84.81% # Class of executed instruction
system.cpu01.op_class::SimdCmp                      0      0.00%     84.81% # Class of executed instruction
system.cpu01.op_class::SimdCvt                      0      0.00%     84.81% # Class of executed instruction
system.cpu01.op_class::SimdMisc                     0      0.00%     84.81% # Class of executed instruction
system.cpu01.op_class::SimdMult                     0      0.00%     84.81% # Class of executed instruction
system.cpu01.op_class::SimdMultAcc                  0      0.00%     84.81% # Class of executed instruction
system.cpu01.op_class::SimdShift                    0      0.00%     84.81% # Class of executed instruction
system.cpu01.op_class::SimdShiftAcc                 0      0.00%     84.81% # Class of executed instruction
system.cpu01.op_class::SimdSqrt                     0      0.00%     84.81% # Class of executed instruction
system.cpu01.op_class::SimdFloatAdd                 0      0.00%     84.81% # Class of executed instruction
system.cpu01.op_class::SimdFloatAlu                 0      0.00%     84.81% # Class of executed instruction
system.cpu01.op_class::SimdFloatCmp                 0      0.00%     84.81% # Class of executed instruction
system.cpu01.op_class::SimdFloatCvt                 0      0.00%     84.81% # Class of executed instruction
system.cpu01.op_class::SimdFloatDiv                 0      0.00%     84.81% # Class of executed instruction
system.cpu01.op_class::SimdFloatMisc                0      0.00%     84.81% # Class of executed instruction
system.cpu01.op_class::SimdFloatMult                0      0.00%     84.81% # Class of executed instruction
system.cpu01.op_class::SimdFloatMultAcc             0      0.00%     84.81% # Class of executed instruction
system.cpu01.op_class::SimdFloatSqrt                0      0.00%     84.81% # Class of executed instruction
system.cpu01.op_class::MemRead                  16690     15.02%     99.83% # Class of executed instruction
system.cpu01.op_class::MemWrite                   184      0.17%    100.00% # Class of executed instruction
system.cpu01.op_class::IprAccess                    0      0.00%    100.00% # Class of executed instruction
system.cpu01.op_class::InstPrefetch                 0      0.00%    100.00% # Class of executed instruction
system.cpu01.op_class::total                   111091                       # Class of executed instruction
system.cpu02.apic_clk_domain.clock               8000                       # Clock period in ticks
system.cpu02.numCycles                        1203730                       # number of cpu cycles simulated
system.cpu02.numWorkItemsStarted                    0                       # number of work items this cpu started
system.cpu02.numWorkItemsCompleted                  0                       # number of work items this cpu completed
system.cpu02.committedInsts                     59849                       # Number of instructions committed
system.cpu02.committedOps                      110971                       # Number of ops (including micro ops) committed
system.cpu02.num_int_alu_accesses              110615                       # Number of integer alu accesses
system.cpu02.num_fp_alu_accesses                    0                       # Number of float alu accesses
system.cpu02.num_func_calls                        15                       # number of times a function call or return occured
system.cpu02.num_conditional_control_insts         8785                       # number of instructions that are conditional controls
system.cpu02.num_int_insts                     110615                       # number of integer instructions
system.cpu02.num_fp_insts                           0                       # number of float instructions
system.cpu02.num_int_register_reads            203681                       # number of times the integer registers were read
system.cpu02.num_int_register_writes           109843                       # number of times the integer registers were written
system.cpu02.num_fp_register_reads                  0                       # number of times the floating registers were read
system.cpu02.num_fp_register_writes                 0                       # number of times the floating registers were written
system.cpu02.num_cc_register_reads              44176                       # number of times the CC registers were read
system.cpu02.num_cc_register_writes             75948                       # number of times the CC registers were written
system.cpu02.num_mem_refs                       16864                       # number of memory refs
system.cpu02.num_load_insts                     16680                       # Number of load instructions
system.cpu02.num_store_insts                      184                       # Number of store instructions
system.cpu02.num_idle_cycles             817922.547999                       # Number of idle cycles
system.cpu02.num_busy_cycles             385807.452001                       # Number of busy cycles
system.cpu02.not_idle_fraction               0.320510                       # Percentage of non-idle cycles
system.cpu02.idle_fraction                   0.679490                       # Percentage of idle cycles
system.cpu02.Branches                            8809                       # Number of branches fetched
system.cpu02.op_class::No_OpClass                 135      0.12%      0.12% # Class of executed instruction
system.cpu02.op_class::IntAlu                   85763     77.28%     77.41% # Class of executed instruction
system.cpu02.op_class::IntMult                   8195      7.38%     84.79% # Class of executed instruction
system.cpu02.op_class::IntDiv                      14      0.01%     84.80% # Class of executed instruction
system.cpu02.op_class::FloatAdd                     0      0.00%     84.80% # Class of executed instruction
system.cpu02.op_class::FloatCmp                     0      0.00%     84.80% # Class of executed instruction
system.cpu02.op_class::FloatCvt                     0      0.00%     84.80% # Class of executed instruction
system.cpu02.op_class::FloatMult                    0      0.00%     84.80% # Class of executed instruction
system.cpu02.op_class::FloatDiv                     0      0.00%     84.80% # Class of executed instruction
system.cpu02.op_class::FloatSqrt                    0      0.00%     84.80% # Class of executed instruction
system.cpu02.op_class::SimdAdd                      0      0.00%     84.80% # Class of executed instruction
system.cpu02.op_class::SimdAddAcc                   0      0.00%     84.80% # Class of executed instruction
system.cpu02.op_class::SimdAlu                      0      0.00%     84.80% # Class of executed instruction
system.cpu02.op_class::SimdCmp                      0      0.00%     84.80% # Class of executed instruction
system.cpu02.op_class::SimdCvt                      0      0.00%     84.80% # Class of executed instruction
system.cpu02.op_class::SimdMisc                     0      0.00%     84.80% # Class of executed instruction
system.cpu02.op_class::SimdMult                     0      0.00%     84.80% # Class of executed instruction
system.cpu02.op_class::SimdMultAcc                  0      0.00%     84.80% # Class of executed instruction
system.cpu02.op_class::SimdShift                    0      0.00%     84.80% # Class of executed instruction
system.cpu02.op_class::SimdShiftAcc                 0      0.00%     84.80% # Class of executed instruction
system.cpu02.op_class::SimdSqrt                     0      0.00%     84.80% # Class of executed instruction
system.cpu02.op_class::SimdFloatAdd                 0      0.00%     84.80% # Class of executed instruction
system.cpu02.op_class::SimdFloatAlu                 0      0.00%     84.80% # Class of executed instruction
system.cpu02.op_class::SimdFloatCmp                 0      0.00%     84.80% # Class of executed instruction
system.cpu02.op_class::SimdFloatCvt                 0      0.00%     84.80% # Class of executed instruction
system.cpu02.op_class::SimdFloatDiv                 0      0.00%     84.80% # Class of executed instruction
system.cpu02.op_class::SimdFloatMisc                0      0.00%     84.80% # Class of executed instruction
system.cpu02.op_class::SimdFloatMult                0      0.00%     84.80% # Class of executed instruction
system.cpu02.op_class::SimdFloatMultAcc             0      0.00%     84.80% # Class of executed instruction
system.cpu02.op_class::SimdFloatSqrt                0      0.00%     84.80% # Class of executed instruction
system.cpu02.op_class::MemRead                  16680     15.03%     99.83% # Class of executed instruction
system.cpu02.op_class::MemWrite                   184      0.17%    100.00% # Class of executed instruction
system.cpu02.op_class::IprAccess                    0      0.00%    100.00% # Class of executed instruction
system.cpu02.op_class::InstPrefetch                 0      0.00%    100.00% # Class of executed instruction
system.cpu02.op_class::total                   110971                       # Class of executed instruction
system.cpu03.apic_clk_domain.clock               8000                       # Clock period in ticks
system.cpu03.numCycles                        1202708                       # number of cpu cycles simulated
system.cpu03.numWorkItemsStarted                    0                       # number of work items this cpu started
system.cpu03.numWorkItemsCompleted                  0                       # number of work items this cpu completed
system.cpu03.committedInsts                     59933                       # Number of instructions committed
system.cpu03.committedOps                      111139                       # Number of ops (including micro ops) committed
system.cpu03.num_int_alu_accesses              110769                       # Number of integer alu accesses
system.cpu03.num_fp_alu_accesses                    0                       # Number of float alu accesses
system.cpu03.num_func_calls                        15                       # number of times a function call or return occured
system.cpu03.num_conditional_control_insts         8813                       # number of instructions that are conditional controls
system.cpu03.num_int_insts                     110769                       # number of integer instructions
system.cpu03.num_fp_insts                           0                       # number of float instructions
system.cpu03.num_int_register_reads            203919                       # number of times the integer registers were read
system.cpu03.num_int_register_writes           109969                       # number of times the integer registers were written
system.cpu03.num_fp_register_reads                  0                       # number of times the floating registers were read
system.cpu03.num_fp_register_writes                 0                       # number of times the floating registers were written
system.cpu03.num_cc_register_reads              44316                       # number of times the CC registers were read
system.cpu03.num_cc_register_writes             76032                       # number of times the CC registers were written
system.cpu03.num_mem_refs                       16878                       # number of memory refs
system.cpu03.num_load_insts                     16694                       # Number of load instructions
system.cpu03.num_store_insts                      184                       # Number of store instructions
system.cpu03.num_idle_cycles             818201.918491                       # Number of idle cycles
system.cpu03.num_busy_cycles             384506.081509                       # Number of busy cycles
system.cpu03.not_idle_fraction               0.319700                       # Percentage of non-idle cycles
system.cpu03.idle_fraction                   0.680300                       # Percentage of idle cycles
system.cpu03.Branches                            8837                       # Number of branches fetched
system.cpu03.op_class::No_OpClass                 135      0.12%      0.12% # Class of executed instruction
system.cpu03.op_class::IntAlu                   85917     77.31%     77.43% # Class of executed instruction
system.cpu03.op_class::IntMult                   8195      7.37%     84.80% # Class of executed instruction
system.cpu03.op_class::IntDiv                      14      0.01%     84.81% # Class of executed instruction
system.cpu03.op_class::FloatAdd                     0      0.00%     84.81% # Class of executed instruction
system.cpu03.op_class::FloatCmp                     0      0.00%     84.81% # Class of executed instruction
system.cpu03.op_class::FloatCvt                     0      0.00%     84.81% # Class of executed instruction
system.cpu03.op_class::FloatMult                    0      0.00%     84.81% # Class of executed instruction
system.cpu03.op_class::FloatDiv                     0      0.00%     84.81% # Class of executed instruction
system.cpu03.op_class::FloatSqrt                    0      0.00%     84.81% # Class of executed instruction
system.cpu03.op_class::SimdAdd                      0      0.00%     84.81% # Class of executed instruction
system.cpu03.op_class::SimdAddAcc                   0      0.00%     84.81% # Class of executed instruction
system.cpu03.op_class::SimdAlu                      0      0.00%     84.81% # Class of executed instruction
system.cpu03.op_class::SimdCmp                      0      0.00%     84.81% # Class of executed instruction
system.cpu03.op_class::SimdCvt                      0      0.00%     84.81% # Class of executed instruction
system.cpu03.op_class::SimdMisc                     0      0.00%     84.81% # Class of executed instruction
system.cpu03.op_class::SimdMult                     0      0.00%     84.81% # Class of executed instruction
system.cpu03.op_class::SimdMultAcc                  0      0.00%     84.81% # Class of executed instruction
system.cpu03.op_class::SimdShift                    0      0.00%     84.81% # Class of executed instruction
system.cpu03.op_class::SimdShiftAcc                 0      0.00%     84.81% # Class of executed instruction
system.cpu03.op_class::SimdSqrt                     0      0.00%     84.81% # Class of executed instruction
system.cpu03.op_class::SimdFloatAdd                 0      0.00%     84.81% # Class of executed instruction
system.cpu03.op_class::SimdFloatAlu                 0      0.00%     84.81% # Class of executed instruction
system.cpu03.op_class::SimdFloatCmp                 0      0.00%     84.81% # Class of executed instruction
system.cpu03.op_class::SimdFloatCvt                 0      0.00%     84.81% # Class of executed instruction
system.cpu03.op_class::SimdFloatDiv                 0      0.00%     84.81% # Class of executed instruction
system.cpu03.op_class::SimdFloatMisc                0      0.00%     84.81% # Class of executed instruction
system.cpu03.op_class::SimdFloatMult                0      0.00%     84.81% # Class of executed instruction
system.cpu03.op_class::SimdFloatMultAcc             0      0.00%     84.81% # Class of executed instruction
system.cpu03.op_class::SimdFloatSqrt                0      0.00%     84.81% # Class of executed instruction
system.cpu03.op_class::MemRead                  16694     15.02%     99.83% # Class of executed instruction
system.cpu03.op_class::MemWrite                   184      0.17%    100.00% # Class of executed instruction
system.cpu03.op_class::IprAccess                    0      0.00%    100.00% # Class of executed instruction
system.cpu03.op_class::InstPrefetch                 0      0.00%    100.00% # Class of executed instruction
system.cpu03.op_class::total                   111139                       # Class of executed instruction
system.cpu04.apic_clk_domain.clock               8000                       # Clock period in ticks
system.cpu04.numCycles                        1203545                       # number of cpu cycles simulated
system.cpu04.numWorkItemsStarted                    0                       # number of work items this cpu started
system.cpu04.numWorkItemsCompleted                  0                       # number of work items this cpu completed
system.cpu04.committedInsts                     59801                       # Number of instructions committed
system.cpu04.committedOps                      110875                       # Number of ops (including micro ops) committed
system.cpu04.num_int_alu_accesses              110527                       # Number of integer alu accesses
system.cpu04.num_fp_alu_accesses                    0                       # Number of float alu accesses
system.cpu04.num_func_calls                        15                       # number of times a function call or return occured
system.cpu04.num_conditional_control_insts         8769                       # number of instructions that are conditional controls
system.cpu04.num_int_insts                     110527                       # number of integer instructions
system.cpu04.num_fp_insts                           0                       # number of float instructions
system.cpu04.num_int_register_reads            203545                       # number of times the integer registers were read
system.cpu04.num_int_register_writes           109771                       # number of times the integer registers were written
system.cpu04.num_fp_register_reads                  0                       # number of times the floating registers were read
system.cpu04.num_fp_register_writes                 0                       # number of times the floating registers were written
system.cpu04.num_cc_register_reads              44096                       # number of times the CC registers were read
system.cpu04.num_cc_register_writes             75900                       # number of times the CC registers were written
system.cpu04.num_mem_refs                       16856                       # number of memory refs
system.cpu04.num_load_insts                     16672                       # Number of load instructions
system.cpu04.num_store_insts                      184                       # Number of store instructions
system.cpu04.num_idle_cycles             818259.798025                       # Number of idle cycles
system.cpu04.num_busy_cycles             385285.201975                       # Number of busy cycles
system.cpu04.not_idle_fraction               0.320125                       # Percentage of non-idle cycles
system.cpu04.idle_fraction                   0.679875                       # Percentage of idle cycles
system.cpu04.Branches                            8793                       # Number of branches fetched
system.cpu04.op_class::No_OpClass                 135      0.12%      0.12% # Class of executed instruction
system.cpu04.op_class::IntAlu                   85675     77.27%     77.39% # Class of executed instruction
system.cpu04.op_class::IntMult                   8195      7.39%     84.78% # Class of executed instruction
system.cpu04.op_class::IntDiv                      14      0.01%     84.80% # Class of executed instruction
system.cpu04.op_class::FloatAdd                     0      0.00%     84.80% # Class of executed instruction
system.cpu04.op_class::FloatCmp                     0      0.00%     84.80% # Class of executed instruction
system.cpu04.op_class::FloatCvt                     0      0.00%     84.80% # Class of executed instruction
system.cpu04.op_class::FloatMult                    0      0.00%     84.80% # Class of executed instruction
system.cpu04.op_class::FloatDiv                     0      0.00%     84.80% # Class of executed instruction
system.cpu04.op_class::FloatSqrt                    0      0.00%     84.80% # Class of executed instruction
system.cpu04.op_class::SimdAdd                      0      0.00%     84.80% # Class of executed instruction
system.cpu04.op_class::SimdAddAcc                   0      0.00%     84.80% # Class of executed instruction
system.cpu04.op_class::SimdAlu                      0      0.00%     84.80% # Class of executed instruction
system.cpu04.op_class::SimdCmp                      0      0.00%     84.80% # Class of executed instruction
system.cpu04.op_class::SimdCvt                      0      0.00%     84.80% # Class of executed instruction
system.cpu04.op_class::SimdMisc                     0      0.00%     84.80% # Class of executed instruction
system.cpu04.op_class::SimdMult                     0      0.00%     84.80% # Class of executed instruction
system.cpu04.op_class::SimdMultAcc                  0      0.00%     84.80% # Class of executed instruction
system.cpu04.op_class::SimdShift                    0      0.00%     84.80% # Class of executed instruction
system.cpu04.op_class::SimdShiftAcc                 0      0.00%     84.80% # Class of executed instruction
system.cpu04.op_class::SimdSqrt                     0      0.00%     84.80% # Class of executed instruction
system.cpu04.op_class::SimdFloatAdd                 0      0.00%     84.80% # Class of executed instruction
system.cpu04.op_class::SimdFloatAlu                 0      0.00%     84.80% # Class of executed instruction
system.cpu04.op_class::SimdFloatCmp                 0      0.00%     84.80% # Class of executed instruction
system.cpu04.op_class::SimdFloatCvt                 0      0.00%     84.80% # Class of executed instruction
system.cpu04.op_class::SimdFloatDiv                 0      0.00%     84.80% # Class of executed instruction
system.cpu04.op_class::SimdFloatMisc                0      0.00%     84.80% # Class of executed instruction
system.cpu04.op_class::SimdFloatMult                0      0.00%     84.80% # Class of executed instruction
system.cpu04.op_class::SimdFloatMultAcc             0      0.00%     84.80% # Class of executed instruction
system.cpu04.op_class::SimdFloatSqrt                0      0.00%     84.80% # Class of executed instruction
system.cpu04.op_class::MemRead                  16672     15.04%     99.83% # Class of executed instruction
system.cpu04.op_class::MemWrite                   184      0.17%    100.00% # Class of executed instruction
system.cpu04.op_class::IprAccess                    0      0.00%    100.00% # Class of executed instruction
system.cpu04.op_class::InstPrefetch                 0      0.00%    100.00% # Class of executed instruction
system.cpu04.op_class::total                   110875                       # Class of executed instruction
system.cpu05.apic_clk_domain.clock               8000                       # Clock period in ticks
system.cpu05.numCycles                        1203528                       # number of cpu cycles simulated
system.cpu05.numWorkItemsStarted                    0                       # number of work items this cpu started
system.cpu05.numWorkItemsCompleted                  0                       # number of work items this cpu completed
system.cpu05.committedInsts                     60071                       # Number of instructions committed
system.cpu05.committedOps                      111415                       # Number of ops (including micro ops) committed
system.cpu05.num_int_alu_accesses              111022                       # Number of integer alu accesses
system.cpu05.num_fp_alu_accesses                    0                       # Number of float alu accesses
system.cpu05.num_func_calls                        15                       # number of times a function call or return occured
system.cpu05.num_conditional_control_insts         8859                       # number of instructions that are conditional controls
system.cpu05.num_int_insts                     111022                       # number of integer instructions
system.cpu05.num_fp_insts                           0                       # number of float instructions
system.cpu05.num_int_register_reads            204310                       # number of times the integer registers were read
system.cpu05.num_int_register_writes           110176                       # number of times the integer registers were written
system.cpu05.num_fp_register_reads                  0                       # number of times the floating registers were read
system.cpu05.num_fp_register_writes                 0                       # number of times the floating registers were written
system.cpu05.num_cc_register_reads              44546                       # number of times the CC registers were read
system.cpu05.num_cc_register_writes             76170                       # number of times the CC registers were written
system.cpu05.num_mem_refs                       16901                       # number of memory refs
system.cpu05.num_load_insts                     16717                       # Number of load instructions
system.cpu05.num_store_insts                      184                       # Number of store instructions
system.cpu05.num_idle_cycles             818088.636703                       # Number of idle cycles
system.cpu05.num_busy_cycles             385439.363297                       # Number of busy cycles
system.cpu05.not_idle_fraction               0.320258                       # Percentage of non-idle cycles
system.cpu05.idle_fraction                   0.679742                       # Percentage of idle cycles
system.cpu05.Branches                            8883                       # Number of branches fetched
system.cpu05.op_class::No_OpClass                 135      0.12%      0.12% # Class of executed instruction
system.cpu05.op_class::IntAlu                   86170     77.34%     77.46% # Class of executed instruction
system.cpu05.op_class::IntMult                   8195      7.36%     84.82% # Class of executed instruction
system.cpu05.op_class::IntDiv                      14      0.01%     84.83% # Class of executed instruction
system.cpu05.op_class::FloatAdd                     0      0.00%     84.83% # Class of executed instruction
system.cpu05.op_class::FloatCmp                     0      0.00%     84.83% # Class of executed instruction
system.cpu05.op_class::FloatCvt                     0      0.00%     84.83% # Class of executed instruction
system.cpu05.op_class::FloatMult                    0      0.00%     84.83% # Class of executed instruction
system.cpu05.op_class::FloatDiv                     0      0.00%     84.83% # Class of executed instruction
system.cpu05.op_class::FloatSqrt                    0      0.00%     84.83% # Class of executed instruction
system.cpu05.op_class::SimdAdd                      0      0.00%     84.83% # Class of executed instruction
system.cpu05.op_class::SimdAddAcc                   0      0.00%     84.83% # Class of executed instruction
system.cpu05.op_class::SimdAlu                      0      0.00%     84.83% # Class of executed instruction
system.cpu05.op_class::SimdCmp                      0      0.00%     84.83% # Class of executed instruction
system.cpu05.op_class::SimdCvt                      0      0.00%     84.83% # Class of executed instruction
system.cpu05.op_class::SimdMisc                     0      0.00%     84.83% # Class of executed instruction
system.cpu05.op_class::SimdMult                     0      0.00%     84.83% # Class of executed instruction
system.cpu05.op_class::SimdMultAcc                  0      0.00%     84.83% # Class of executed instruction
system.cpu05.op_class::SimdShift                    0      0.00%     84.83% # Class of executed instruction
system.cpu05.op_class::SimdShiftAcc                 0      0.00%     84.83% # Class of executed instruction
system.cpu05.op_class::SimdSqrt                     0      0.00%     84.83% # Class of executed instruction
system.cpu05.op_class::SimdFloatAdd                 0      0.00%     84.83% # Class of executed instruction
system.cpu05.op_class::SimdFloatAlu                 0      0.00%     84.83% # Class of executed instruction
system.cpu05.op_class::SimdFloatCmp                 0      0.00%     84.83% # Class of executed instruction
system.cpu05.op_class::SimdFloatCvt                 0      0.00%     84.83% # Class of executed instruction
system.cpu05.op_class::SimdFloatDiv                 0      0.00%     84.83% # Class of executed instruction
system.cpu05.op_class::SimdFloatMisc                0      0.00%     84.83% # Class of executed instruction
system.cpu05.op_class::SimdFloatMult                0      0.00%     84.83% # Class of executed instruction
system.cpu05.op_class::SimdFloatMultAcc             0      0.00%     84.83% # Class of executed instruction
system.cpu05.op_class::SimdFloatSqrt                0      0.00%     84.83% # Class of executed instruction
system.cpu05.op_class::MemRead                  16717     15.00%     99.83% # Class of executed instruction
system.cpu05.op_class::MemWrite                   184      0.17%    100.00% # Class of executed instruction
system.cpu05.op_class::IprAccess                    0      0.00%    100.00% # Class of executed instruction
system.cpu05.op_class::InstPrefetch                 0      0.00%    100.00% # Class of executed instruction
system.cpu05.op_class::total                   111415                       # Class of executed instruction
system.cpu06.apic_clk_domain.clock               8000                       # Clock period in ticks
system.cpu06.numCycles                        1203250                       # number of cpu cycles simulated
system.cpu06.numWorkItemsStarted                    0                       # number of work items this cpu started
system.cpu06.numWorkItemsCompleted                  0                       # number of work items this cpu completed
system.cpu06.committedInsts                     60083                       # Number of instructions committed
system.cpu06.committedOps                      111439                       # Number of ops (including micro ops) committed
system.cpu06.num_int_alu_accesses              111044                       # Number of integer alu accesses
system.cpu06.num_fp_alu_accesses                    0                       # Number of float alu accesses
system.cpu06.num_func_calls                        15                       # number of times a function call or return occured
system.cpu06.num_conditional_control_insts         8863                       # number of instructions that are conditional controls
system.cpu06.num_int_insts                     111044                       # number of integer instructions
system.cpu06.num_fp_insts                           0                       # number of float instructions
system.cpu06.num_int_register_reads            204344                       # number of times the integer registers were read
system.cpu06.num_int_register_writes           110194                       # number of times the integer registers were written
system.cpu06.num_fp_register_reads                  0                       # number of times the floating registers were read
system.cpu06.num_fp_register_writes                 0                       # number of times the floating registers were written
system.cpu06.num_cc_register_reads              44566                       # number of times the CC registers were read
system.cpu06.num_cc_register_writes             76182                       # number of times the CC registers were written
system.cpu06.num_mem_refs                       16903                       # number of memory refs
system.cpu06.num_load_insts                     16719                       # Number of load instructions
system.cpu06.num_store_insts                      184                       # Number of store instructions
system.cpu06.num_idle_cycles             818184.113186                       # Number of idle cycles
system.cpu06.num_busy_cycles             385065.886814                       # Number of busy cycles
system.cpu06.not_idle_fraction               0.320022                       # Percentage of non-idle cycles
system.cpu06.idle_fraction                   0.679978                       # Percentage of idle cycles
system.cpu06.Branches                            8887                       # Number of branches fetched
system.cpu06.op_class::No_OpClass                 135      0.12%      0.12% # Class of executed instruction
system.cpu06.op_class::IntAlu                   86192     77.34%     77.47% # Class of executed instruction
system.cpu06.op_class::IntMult                   8195      7.35%     84.82% # Class of executed instruction
system.cpu06.op_class::IntDiv                      14      0.01%     84.83% # Class of executed instruction
system.cpu06.op_class::FloatAdd                     0      0.00%     84.83% # Class of executed instruction
system.cpu06.op_class::FloatCmp                     0      0.00%     84.83% # Class of executed instruction
system.cpu06.op_class::FloatCvt                     0      0.00%     84.83% # Class of executed instruction
system.cpu06.op_class::FloatMult                    0      0.00%     84.83% # Class of executed instruction
system.cpu06.op_class::FloatDiv                     0      0.00%     84.83% # Class of executed instruction
system.cpu06.op_class::FloatSqrt                    0      0.00%     84.83% # Class of executed instruction
system.cpu06.op_class::SimdAdd                      0      0.00%     84.83% # Class of executed instruction
system.cpu06.op_class::SimdAddAcc                   0      0.00%     84.83% # Class of executed instruction
system.cpu06.op_class::SimdAlu                      0      0.00%     84.83% # Class of executed instruction
system.cpu06.op_class::SimdCmp                      0      0.00%     84.83% # Class of executed instruction
system.cpu06.op_class::SimdCvt                      0      0.00%     84.83% # Class of executed instruction
system.cpu06.op_class::SimdMisc                     0      0.00%     84.83% # Class of executed instruction
system.cpu06.op_class::SimdMult                     0      0.00%     84.83% # Class of executed instruction
system.cpu06.op_class::SimdMultAcc                  0      0.00%     84.83% # Class of executed instruction
system.cpu06.op_class::SimdShift                    0      0.00%     84.83% # Class of executed instruction
system.cpu06.op_class::SimdShiftAcc                 0      0.00%     84.83% # Class of executed instruction
system.cpu06.op_class::SimdSqrt                     0      0.00%     84.83% # Class of executed instruction
system.cpu06.op_class::SimdFloatAdd                 0      0.00%     84.83% # Class of executed instruction
system.cpu06.op_class::SimdFloatAlu                 0      0.00%     84.83% # Class of executed instruction
system.cpu06.op_class::SimdFloatCmp                 0      0.00%     84.83% # Class of executed instruction
system.cpu06.op_class::SimdFloatCvt                 0      0.00%     84.83% # Class of executed instruction
system.cpu06.op_class::SimdFloatDiv                 0      0.00%     84.83% # Class of executed instruction
system.cpu06.op_class::SimdFloatMisc                0      0.00%     84.83% # Class of executed instruction
system.cpu06.op_class::SimdFloatMult                0      0.00%     84.83% # Class of executed instruction
system.cpu06.op_class::SimdFloatMultAcc             0      0.00%     84.83% # Class of executed instruction
system.cpu06.op_class::SimdFloatSqrt                0      0.00%     84.83% # Class of executed instruction
system.cpu06.op_class::MemRead                  16719     15.00%     99.83% # Class of executed instruction
system.cpu06.op_class::MemWrite                   184      0.17%    100.00% # Class of executed instruction
system.cpu06.op_class::IprAccess                    0      0.00%    100.00% # Class of executed instruction
system.cpu06.op_class::InstPrefetch                 0      0.00%    100.00% # Class of executed instruction
system.cpu06.op_class::total                   111439                       # Class of executed instruction
system.cpu07.apic_clk_domain.clock               8000                       # Clock period in ticks
system.cpu07.numCycles                        1202568                       # number of cpu cycles simulated
system.cpu07.numWorkItemsStarted                    0                       # number of work items this cpu started
system.cpu07.numWorkItemsCompleted                  0                       # number of work items this cpu completed
system.cpu07.committedInsts                     59897                       # Number of instructions committed
system.cpu07.committedOps                      111067                       # Number of ops (including micro ops) committed
system.cpu07.num_int_alu_accesses              110703                       # Number of integer alu accesses
system.cpu07.num_fp_alu_accesses                    0                       # Number of float alu accesses
system.cpu07.num_func_calls                        15                       # number of times a function call or return occured
system.cpu07.num_conditional_control_insts         8801                       # number of instructions that are conditional controls
system.cpu07.num_int_insts                     110703                       # number of integer instructions
system.cpu07.num_fp_insts                           0                       # number of float instructions
system.cpu07.num_int_register_reads            203817                       # number of times the integer registers were read
system.cpu07.num_int_register_writes           109915                       # number of times the integer registers were written
system.cpu07.num_fp_register_reads                  0                       # number of times the floating registers were read
system.cpu07.num_fp_register_writes                 0                       # number of times the floating registers were written
system.cpu07.num_cc_register_reads              44256                       # number of times the CC registers were read
system.cpu07.num_cc_register_writes             75996                       # number of times the CC registers were written
system.cpu07.num_mem_refs                       16872                       # number of memory refs
system.cpu07.num_load_insts                     16688                       # Number of load instructions
system.cpu07.num_store_insts                      184                       # Number of store instructions
system.cpu07.num_idle_cycles             817886.777748                       # Number of idle cycles
system.cpu07.num_busy_cycles             384681.222252                       # Number of busy cycles
system.cpu07.not_idle_fraction               0.319883                       # Percentage of non-idle cycles
system.cpu07.idle_fraction                   0.680117                       # Percentage of idle cycles
system.cpu07.Branches                            8825                       # Number of branches fetched
system.cpu07.op_class::No_OpClass                 135      0.12%      0.12% # Class of executed instruction
system.cpu07.op_class::IntAlu                   85851     77.30%     77.42% # Class of executed instruction
system.cpu07.op_class::IntMult                   8195      7.38%     84.80% # Class of executed instruction
system.cpu07.op_class::IntDiv                      14      0.01%     84.81% # Class of executed instruction
system.cpu07.op_class::FloatAdd                     0      0.00%     84.81% # Class of executed instruction
system.cpu07.op_class::FloatCmp                     0      0.00%     84.81% # Class of executed instruction
system.cpu07.op_class::FloatCvt                     0      0.00%     84.81% # Class of executed instruction
system.cpu07.op_class::FloatMult                    0      0.00%     84.81% # Class of executed instruction
[...]
system.ruby.L1Cache_Controller.SM.Exclusive_Data::total           35                      
system.ruby.L1Cache_Controller.OM.Ack    |          31    100.00%    100.00% |           0      0.00%    100.00% |           0      0.00%    100.00% |           0      0.00%    100.00% |           0      0.00%    100.00% |           0      0.00%    100.00% |           0      0.00%    100.00% |           0      0.00%    100.00% |           0      0.00%    100.00% |           0      0.00%    100.00% |           0      0.00%    100.00% |           0      0.00%    100.00% |           0      0.00%    100.00% |           0      0.00%    100.00% |           0      0.00%    100.00% |           0      0.00%    100.00% |           0      0.00%    100.00% |           0      0.00%    100.00% |           0      0.00%    100.00% |           0      0.00%    100.00% |           0      0.00%    100.00% |           0      0.00%    100.00% |           0      0.00%    100.00% |           0      0.00%    100.00% |           0      0.00%    100.00% |           0      0.00%    100.00% |           0      0.00%    100.00% |           0      0.00%    100.00% |           0      0.00%    100.00% |           0      0.00%    100.00% |           0      0.00%    100.00% |           0      0.00%    100.00%
system.ruby.L1Cache_Controller.OM.Ack::total           31                      
system.ruby.L1Cache_Controller.OM.All_acks |        3148     44.61%     44.61% |         126      1.79%     46.40% |         126      1.79%     48.19% |         126      1.79%     49.97% |         126      1.79%     51.76% |         126      1.79%     53.54% |         126      1.79%     55.33% |         126      1.79%     57.11% |         126      1.79%     58.90% |         126      1.79%     60.69% |         126      1.79%     62.47% |         126      1.79%     64.26% |         126      1.79%     66.04% |         126      1.79%     67.83% |         126      1.79%     69.61% |         126      1.79%     71.40% |         126      1.79%     73.19% |         127      1.80%     74.99% |         126      1.79%     76.77% |         126      1.79%     78.56% |         126      1.79%     80.34% |         126      1.79%     82.13% |         126      1.79%     83.91% |         126      1.79%     85.70% |         126      1.79%     87.49% |         126      1.79%     89.27% |         126      1.79%     91.06% |         126      1.79%     92.84% |         126      1.79%     94.63% |         126      1.79%     96.41% |         126      1.79%     98.20% |         127      1.80%    100.00%
system.ruby.L1Cache_Controller.OM.All_acks::total         7056                      
system.ruby.L1Cache_Controller.IS.Data   |        1192      4.38%      4.38% |         843      3.10%      7.48% |         849      3.12%     10.60% |         848      3.12%     13.71% |         849      3.12%     16.83% |         837      3.08%     19.91% |         773      2.84%     22.75% |         848      3.12%     25.87% |         849      3.12%     28.99% |         834      3.06%     32.05% |         849      3.12%     35.17% |         848      3.12%     38.29% |         847      3.11%     41.40% |         848      3.12%     44.52% |         849      3.12%     47.64% |         774      2.84%     50.48% |         849      3.12%     53.60% |         844      3.10%     56.70% |         849      3.12%     59.82% |         848      3.12%     62.94% |         849      3.12%     66.06% |         846      3.11%     69.17% |         849      3.12%     72.29% |         848      3.12%     75.40% |         832      3.06%     78.46% |         835      3.07%     81.53% |         849      3.12%     84.65% |         848      3.12%     87.77% |         847      3.11%     90.88% |         815      3.00%     93.87% |         848      3.12%     96.99% |         819      3.01%    100.00%
system.ruby.L1Cache_Controller.IS.Data::total        27212                      
system.ruby.L1Cache_Controller.IS.Exclusive_Data |         504      8.78%      8.78% |         165      2.88%     11.66% |         159      2.77%     14.43% |         160      2.79%     17.22% |         162      2.82%     20.04% |         171      2.98%     23.02% |         235      4.09%     27.11% |         160      2.79%     29.90% |         162      2.82%     32.72% |         174      3.03%     35.76% |         159      2.77%     38.53% |         160      2.79%     41.31% |         162      2.82%     44.14% |         160      2.79%     46.92% |         159      2.77%     49.70% |         235      4.09%     53.79% |         155      2.70%     56.49% |         163      2.84%     59.33% |         159      2.77%     62.10% |         160      2.79%     64.89% |         162      2.82%     67.71% |         162      2.82%     70.53% |         159      2.77%     73.31% |         160      2.79%     76.09% |         179      3.12%     79.21% |         173      3.01%     82.23% |         159      2.77%     85.00% |         160      2.79%     87.79% |         162      2.82%     90.61% |         192      3.35%     93.95% |         159      2.77%     96.72% |         188      3.28%    100.00%
system.ruby.L1Cache_Controller.IS.Exclusive_Data::total         5739                      
system.ruby.L1Cache_Controller.SI.Ifetch |           2    100.00%    100.00% |           0      0.00%    100.00% |           0      0.00%    100.00% |           0      0.00%    100.00% |           0      0.00%    100.00% |           0      0.00%    100.00% |           0      0.00%    100.00% |           0      0.00%    100.00% |           0      0.00%    100.00% |           0      0.00%    100.00% |           0      0.00%    100.00% |           0      0.00%    100.00% |           0      0.00%    100.00% |           0      0.00%    100.00% |           0      0.00%    100.00% |           0      0.00%    100.00% |           0      0.00%    100.00% |           0      0.00%    100.00% |           0      0.00%    100.00% |           0      0.00%    100.00% |           0      0.00%    100.00% |           0      0.00%    100.00% |           0      0.00%    100.00% |           0      0.00%    100.00% |           0      0.00%    100.00% |           0      0.00%    100.00% |           0      0.00%    100.00% |           0      0.00%    100.00% |           0      0.00%    100.00% |           0      0.00%    100.00% |           0      0.00%    100.00% |           0      0.00%    100.00%
system.ruby.L1Cache_Controller.SI.Ifetch::total            2                      
system.ruby.L1Cache_Controller.SI.Writeback_Ack |         330      3.28%      3.28% |         311      3.09%      6.37% |         316      3.14%      9.51% |         315      3.13%     12.64% |         316      3.14%     15.78% |         311      3.09%     18.87% |         305      3.03%     21.90% |         315      3.13%     25.03% |         316      3.14%     28.18% |         313      3.11%     31.29% |         316      3.14%     34.43% |         315      3.13%     37.56% |         314      3.12%     40.68% |         315      3.13%     43.81% |         316      3.14%     46.95% |         309      3.07%     50.02% |         317      3.15%     53.17% |         317      3.15%     56.32% |         316      3.14%     59.46% |         315      3.13%     62.59% |         316      3.14%     65.73% |         315      3.13%     68.86% |         316      3.14%     72.00% |         315      3.13%     75.13% |         314      3.12%     78.25% |         312      3.10%     81.36% |         316      3.14%     84.50% |         315      3.13%     87.63% |         314      3.12%     90.75% |         308      3.06%     93.81% |         315      3.13%     96.94% |         308      3.06%    100.00%
system.ruby.L1Cache_Controller.SI.Writeback_Ack::total        10062                      
system.ruby.L1Cache_Controller.SI.Writeback_Ack_Data |         175    100.00%    100.00% |           0      0.00%    100.00% |           0      0.00%    100.00% |           0      0.00%    100.00% |           0      0.00%    100.00% |           0      0.00%    100.00% |           0      0.00%    100.00% |           0      0.00%    100.00% |           0      0.00%    100.00% |           0      0.00%    100.00% |           0      0.00%    100.00% |           0      0.00%    100.00% |           0      0.00%    100.00% |           0      0.00%    100.00% |           0      0.00%    100.00% |           0      0.00%    100.00% |           0      0.00%    100.00% |           0      0.00%    100.00% |           0      0.00%    100.00% |           0      0.00%    100.00% |           0      0.00%    100.00% |           0      0.00%    100.00% |           0      0.00%    100.00% |           0      0.00%    100.00% |           0      0.00%    100.00% |           0      0.00%    100.00% |           0      0.00%    100.00% |           0      0.00%    100.00% |           0      0.00%    100.00% |           0      0.00%    100.00% |           0      0.00%    100.00% |           0      0.00%    100.00%
system.ruby.L1Cache_Controller.SI.Writeback_Ack_Data::total          175                      
system.ruby.L1Cache_Controller.OI.Fwd_GETS |          14     93.33%     93.33% |           0      0.00%     93.33% |           0      0.00%     93.33% |           0      0.00%     93.33% |           0      0.00%     93.33% |           0      0.00%     93.33% |           0      0.00%     93.33% |           0      0.00%     93.33% |           0      0.00%     93.33% |           0      0.00%     93.33% |           0      0.00%     93.33% |           0      0.00%     93.33% |           0      0.00%     93.33% |           0      0.00%     93.33% |           0      0.00%     93.33% |           0      0.00%     93.33% |           0      0.00%     93.33% |           0      0.00%     93.33% |           0      0.00%     93.33% |           0      0.00%     93.33% |           0      0.00%     93.33% |           0      0.00%     93.33% |           0      0.00%     93.33% |           0      0.00%     93.33% |           0      0.00%     93.33% |           1      6.67%    100.00% |           0      0.00%    100.00% |           0      0.00%    100.00% |           0      0.00%    100.00% |           0      0.00%    100.00% |           0      0.00%    100.00% |           0      0.00%    100.00%
system.ruby.L1Cache_Controller.OI.Fwd_GETS::total           15                      
system.ruby.L1Cache_Controller.OI.Writeback_Ack_Data |          55     49.11%     49.11% |           5      4.46%     53.57% |           0      0.00%     53.57% |           1      0.89%     54.46% |           0      0.00%     54.46% |           5      4.46%     58.93% |          11      9.82%     68.75% |           1      0.89%     69.64% |           0      0.00%     69.64% |           3      2.68%     72.32% |           0      0.00%     72.32% |           1      0.89%     73.21% |           0      0.00%     73.21% |           1      0.89%     74.11% |           0      0.00%     74.11% |           7      6.25%     80.36% |           0      0.00%     80.36% |           1      0.89%     81.25% |           0      0.00%     81.25% |           1      0.89%     82.14% |           0      0.00%     82.14% |           1      0.89%     83.04% |           0      0.00%     83.04% |           1      0.89%     83.93% |           2      1.79%     85.71% |           4      3.57%     89.29% |           0      0.00%     89.29% |           1      0.89%     90.18% |           0      0.00%     90.18% |           7      6.25%     96.43% |           0      0.00%     96.43% |           4      3.57%    100.00%
system.ruby.L1Cache_Controller.OI.Writeback_Ack_Data::total          112                      
system.ruby.L1Cache_Controller.MI.Writeback_Ack_Data |        3007     26.51%     26.51% |         268      2.36%     28.88% |         268      2.36%     31.24% |         268      2.36%     33.60% |         271      2.39%     35.99% |         268      2.36%     38.36% |         268      2.36%     40.72% |         269      2.37%     43.09% |         272      2.40%     45.49% |         268      2.36%     47.85% |         268      2.36%     50.22% |         268      2.36%     52.58% |         271      2.39%     54.97% |         268      2.36%     57.33% |         268      2.36%     59.69% |         270      2.38%     62.08% |         264      2.33%     64.40% |         268      2.36%     66.77% |         268      2.36%     69.13% |         268      2.36%     71.49% |         271      2.39%     73.88% |         268      2.36%     76.25% |         268      2.36%     78.61% |         269      2.37%     80.98% |         272      2.40%     83.38% |         268      2.36%     85.74% |         268      2.36%     88.11% |         268      2.36%     90.47% |         271      2.39%     92.86% |         268      2.36%     95.22% |         268      2.36%     97.58% |         274      2.42%    100.00%
system.ruby.L1Cache_Controller.MI.Writeback_Ack_Data::total        11341                      
system.ruby.L2Cache_Controller.L1_GETS          56834      0.00%      0.00%
system.ruby.L2Cache_Controller.L1_GETX           9028      0.00%      0.00%
system.ruby.L2Cache_Controller.L1_PUTO            161      0.00%      0.00%
system.ruby.L2Cache_Controller.L1_PUTX          11341      0.00%      0.00%
system.ruby.L2Cache_Controller.L1_PUTS_only          240      0.00%      0.00%
system.ruby.L2Cache_Controller.L1_PUTS          10235      0.00%      0.00%
system.ruby.L2Cache_Controller.All_Acks          2207      0.00%      0.00%
system.ruby.L2Cache_Controller.Data              2804      0.00%      0.00%
system.ruby.L2Cache_Controller.L1_WBCLEANDATA          175      0.00%      0.00%
system.ruby.L2Cache_Controller.L1_WBDIRTYDATA        11453      0.00%      0.00%
system.ruby.L2Cache_Controller.Unblock          37274      0.00%      0.00%
system.ruby.L2Cache_Controller.Exclusive_Unblock        12795      0.00%      0.00%
system.ruby.L2Cache_Controller.NP.L1_GETS          597      0.00%      0.00%
system.ruby.L2Cache_Controller.NP.L1_GETX         2175      0.00%      0.00%
system.ruby.L2Cache_Controller.ILS.L1_GETS          858      0.00%      0.00%
system.ruby.L2Cache_Controller.ILS.L1_GETX           30      0.00%      0.00%
system.ruby.L2Cache_Controller.ILS.L1_PUTS_only          173      0.00%      0.00%
system.ruby.L2Cache_Controller.ILS.L1_PUTS            2      0.00%      0.00%
system.ruby.L2Cache_Controller.ILX.L1_GETS          888      0.00%      0.00%
system.ruby.L2Cache_Controller.ILX.L1_GETX          177      0.00%      0.00%
system.ruby.L2Cache_Controller.ILX.L1_PUTX        11341      0.00%      0.00%
system.ruby.L2Cache_Controller.ILOX.L1_GETS            1      0.00%      0.00%
system.ruby.L2Cache_Controller.ILOX.L1_PUTO            7      0.00%      0.00%
system.ruby.L2Cache_Controller.ILOSX.L1_GETS        23945      0.00%      0.00%
system.ruby.L2Cache_Controller.ILOSX.L1_GETX            3      0.00%      0.00%
system.ruby.L2Cache_Controller.ILOSX.L1_PUTO          105      0.00%      0.00%
system.ruby.L2Cache_Controller.ILOSX.L1_PUTS_only           10      0.00%      0.00%
system.ruby.L2Cache_Controller.ILOSX.L1_PUTS         8720      0.00%      0.00%
system.ruby.L2Cache_Controller.S.L1_GETS           53      0.00%      0.00%
system.ruby.L2Cache_Controller.OLSX.L1_GETS         1035      0.00%      0.00%
system.ruby.L2Cache_Controller.OLSX.L1_PUTS_only           23      0.00%      0.00%
system.ruby.L2Cache_Controller.OLSX.L1_PUTS         1217      0.00%      0.00%
system.ruby.L2Cache_Controller.SLS.L1_GETS          179      0.00%      0.00%
system.ruby.L2Cache_Controller.SLS.L1_GETX            2      0.00%      0.00%
system.ruby.L2Cache_Controller.SLS.L1_PUTS_only           34      0.00%      0.00%
system.ruby.L2Cache_Controller.SLS.L1_PUTS           58      0.00%      0.00%
system.ruby.L2Cache_Controller.M.L1_GETS         5395      0.00%      0.00%
system.ruby.L2Cache_Controller.M.L1_GETX         4669      0.00%      0.00%
system.ruby.L2Cache_Controller.ILOXW.L1_WBDIRTYDATA            7      0.00%      0.00%
system.ruby.L2Cache_Controller.ILOXW.Unblock           10      0.00%      0.00%
system.ruby.L2Cache_Controller.ILOSXW.L1_GETS           94      0.00%      0.00%
system.ruby.L2Cache_Controller.ILOSXW.L1_PUTO            2      0.00%      0.00%
system.ruby.L2Cache_Controller.ILOSXW.L1_PUTS           94      0.00%      0.00%
system.ruby.L2Cache_Controller.ILOSXW.L1_WBDIRTYDATA          105      0.00%      0.00%
system.ruby.L2Cache_Controller.ILOSXW.Unblock         8720      0.00%      0.00%
system.ruby.L2Cache_Controller.SLSW.Unblock           58      0.00%      0.00%
system.ruby.L2Cache_Controller.ILSW.L1_WBCLEANDATA            2      0.00%      0.00%
system.ruby.L2Cache_Controller.IW.L1_WBCLEANDATA          173      0.00%      0.00%
system.ruby.L2Cache_Controller.SW.Unblock           34      0.00%      0.00%
system.ruby.L2Cache_Controller.OXW.Unblock           23      0.00%      0.00%
system.ruby.L2Cache_Controller.OLSXW.L1_GETS            3      0.00%      0.00%
system.ruby.L2Cache_Controller.OLSXW.L1_PUTS           39      0.00%      0.00%
system.ruby.L2Cache_Controller.OLSXW.Unblock         1217      0.00%      0.00%
system.ruby.L2Cache_Controller.ILXW.L1_WBDIRTYDATA        11341      0.00%      0.00%
system.ruby.L2Cache_Controller.IFLS.L1_GETS         1726      0.00%      0.00%
system.ruby.L2Cache_Controller.IFLS.Unblock          858      0.00%      0.00%
system.ruby.L2Cache_Controller.IFLOX.Unblock            1      0.00%      0.00%
system.ruby.L2Cache_Controller.IFLOXX.L1_GETS         1446      0.00%      0.00%
system.ruby.L2Cache_Controller.IFLOXX.L1_GETX         1972      0.00%      0.00%
system.ruby.L2Cache_Controller.IFLOXX.Unblock          544      0.00%      0.00%
system.ruby.L2Cache_Controller.IFLOXX.Exclusive_Unblock          521      0.00%      0.00%
system.ruby.L2Cache_Controller.IFLOSX.L1_GETS        14791      0.00%      0.00%
system.ruby.L2Cache_Controller.IFLOSX.L1_PUTO           47      0.00%      0.00%
system.ruby.L2Cache_Controller.IFLOSX.L1_PUTS          103      0.00%      0.00%
system.ruby.L2Cache_Controller.IFLOSX.Unblock        23945      0.00%      0.00%
system.ruby.L2Cache_Controller.IFLXO.L1_GETS           89      0.00%      0.00%
system.ruby.L2Cache_Controller.IFLXO.Exclusive_Unblock            3      0.00%      0.00%
system.ruby.L2Cache_Controller.IGS.L1_GETS         5709      0.00%      0.00%
system.ruby.L2Cache_Controller.IGS.Data           597      0.00%      0.00%
system.ruby.L2Cache_Controller.IGS.Unblock          597      0.00%      0.00%
system.ruby.L2Cache_Controller.IGM.Data          2175      0.00%      0.00%
system.ruby.L2Cache_Controller.IGMLS.Data           32      0.00%      0.00%
system.ruby.L2Cache_Controller.IGMO.All_Acks         2207      0.00%      0.00%
system.ruby.L2Cache_Controller.IGMO.Exclusive_Unblock         2207      0.00%      0.00%
system.ruby.L2Cache_Controller.MM.Exclusive_Unblock         4669      0.00%      0.00%
system.ruby.L2Cache_Controller.SS.Unblock           53      0.00%      0.00%
system.ruby.L2Cache_Controller.OO.L1_GETS            3      0.00%      0.00%
system.ruby.L2Cache_Controller.OO.Exclusive_Unblock         5395      0.00%      0.00%
system.ruby.L2Cache_Controller.OLSXS.L1_GETS           13      0.00%      0.00%
system.ruby.L2Cache_Controller.OLSXS.L1_PUTS            2      0.00%      0.00%
system.ruby.L2Cache_Controller.OLSXS.Unblock         1035      0.00%      0.00%
system.ruby.L2Cache_Controller.SLSS.L1_GETS            9      0.00%      0.00%
system.ruby.L2Cache_Controller.SLSS.Unblock          179      0.00%      0.00%

---------- End Simulation Statistics   ----------
